<?xml version="1.0" encoding="UTF-8"?>

<!-- generated on Fri Oct 26 00:58:25 2018 by SUMO netconvert Version 0.32.0
<?xml version="1.0" encoding="UTF-8"?>

<configuration xmlns:xsi="http://www.w3.org/2001/XMLSchema-instance" xsi:noNamespaceSchemaLocation="http://sumo.dlr.de/xsd/netconvertConfiguration.xsd">

    <input>
        <osm-files value="pituba.osm"/>
    </input>

    <output>
        <output-file value="pituba.net.xml"/>
    </output>

    <projection>
        <proj.utm value="true"/>
    </projection>

</configuration>
-->

<net version="0.27" xmlns:xsi="http://www.w3.org/2001/XMLSchema-instance" xsi:noNamespaceSchemaLocation="http://sumo.dlr.de/xsd/net_file.xsd">

    <location netOffset="-556910.25,1438633.79" convBoundary="0.00,0.00,3142.60,2342.28" origBoundary="-38.475177,-13.013016,-38.446230,-12.991794" projParameter="+proj=utm +zone=24 +ellps=WGS84 +datum=WGS84 +units=m +no_defs"/>

    <type id="highway.bridleway" priority="1" numLanes="1" speed="2.78" allow="pedestrian" oneway="1" width="2.00"/>
    <type id="highway.bus_guideway" priority="1" numLanes="1" speed="8.33" allow="bus" oneway="1"/>
    <type id="highway.cycleway" priority="1" numLanes="1" speed="5.56" allow="bicycle" oneway="0" width="1.00"/>
    <type id="highway.footway" priority="1" numLanes="1" speed="2.78" allow="pedestrian" oneway="1" width="2.00"/>
    <type id="highway.ford" priority="1" numLanes="1" speed="2.78" allow="army" oneway="0"/>
    <type id="highway.living_street" priority="3" numLanes="1" speed="2.78" disallow="tram rail_urban rail rail_electric ship" oneway="0"/>
    <type id="highway.motorway" priority="13" numLanes="2" speed="44.44" allow="private emergency authority army vip passenger hov taxi bus coach delivery truck trailer motorcycle evehicle custom1 custom2" oneway="1"/>
    <type id="highway.motorway_link" priority="12" numLanes="1" speed="22.22" allow="private emergency authority army vip passenger hov taxi bus coach delivery truck trailer motorcycle evehicle custom1 custom2" oneway="1"/>
    <type id="highway.path" priority="1" numLanes="1" speed="2.78" allow="bicycle pedestrian" oneway="1" width="2.00"/>
    <type id="highway.pedestrian" priority="1" numLanes="1" speed="2.78" allow="pedestrian" oneway="1" width="2.00"/>
    <type id="highway.primary" priority="9" numLanes="2" speed="27.78" disallow="tram rail_urban rail rail_electric ship" oneway="0"/>
    <type id="highway.primary_link" priority="8" numLanes="1" speed="22.22" disallow="tram rail_urban rail rail_electric ship" oneway="0"/>
    <type id="highway.raceway" priority="14" numLanes="2" speed="83.33" allow="vip" oneway="0"/>
    <type id="highway.residential" priority="4" numLanes="1" speed="13.89" disallow="tram rail_urban rail rail_electric ship" oneway="0"/>
    <type id="highway.secondary" priority="7" numLanes="2" speed="27.78" disallow="tram rail_urban rail rail_electric ship" oneway="0"/>
    <type id="highway.secondary_link" priority="6" numLanes="1" speed="22.22" disallow="tram rail_urban rail rail_electric ship" oneway="0"/>
    <type id="highway.service" priority="2" numLanes="1" speed="5.56" allow="delivery bicycle pedestrian" oneway="0"/>
    <type id="highway.services" priority="1" numLanes="1" speed="8.33" disallow="tram rail_urban rail rail_electric ship" oneway="0"/>
    <type id="highway.stairs" priority="1" numLanes="1" speed="1.39" allow="pedestrian" oneway="1" width="2.00"/>
    <type id="highway.step" priority="1" numLanes="1" speed="1.39" allow="pedestrian" oneway="1" width="2.00"/>
    <type id="highway.steps" priority="1" numLanes="1" speed="1.39" allow="pedestrian" oneway="1" width="2.00"/>
    <type id="highway.tertiary" priority="6" numLanes="1" speed="22.22" disallow="tram rail_urban rail rail_electric ship" oneway="0"/>
    <type id="highway.tertiary_link" priority="5" numLanes="1" speed="22.22" disallow="tram rail_urban rail rail_electric ship" oneway="0"/>
    <type id="highway.track" priority="1" numLanes="1" speed="5.56" disallow="tram rail_urban rail rail_electric ship" oneway="0"/>
    <type id="highway.trunk" priority="11" numLanes="2" speed="27.78" disallow="tram rail_urban rail rail_electric bicycle pedestrian ship" oneway="0"/>
    <type id="highway.trunk_link" priority="10" numLanes="1" speed="22.22" disallow="tram rail_urban rail rail_electric bicycle pedestrian ship" oneway="0"/>
    <type id="highway.unclassified" priority="5" numLanes="1" speed="13.89" disallow="tram rail_urban rail rail_electric ship" oneway="0"/>
    <type id="highway.unsurfaced" priority="1" numLanes="1" speed="8.33" disallow="tram rail_urban rail rail_electric ship" oneway="0"/>
    <type id="railway.light_rail" priority="15" numLanes="1" speed="27.78" allow="rail_urban" oneway="1"/>
    <type id="railway.preserved" priority="15" numLanes="1" speed="27.78" allow="rail" oneway="1"/>
    <type id="railway.rail" priority="15" numLanes="1" speed="83.33" allow="rail rail_electric" oneway="1"/>
    <type id="railway.subway" priority="15" numLanes="1" speed="27.78" allow="rail_urban" oneway="1"/>
    <type id="railway.tram" priority="15" numLanes="1" speed="13.89" allow="tram" oneway="1"/>

    <edge id=":1154648837_0" function="internal">
        <lane id=":1154648837_0_0" index="0" disallow="tram rail_urban rail rail_electric ship" speed="13.89" length="4.82" shape="2486.06,1388.77 2487.54,1388.77 2488.35,1389.23 2488.46,1390.14 2487.89,1391.52"/>
    </edge>
    <edge id=":1154648840_0" function="internal">
        <lane id=":1154648840_0_0" index="0" disallow="tram rail_urban rail rail_electric ship" speed="13.89" length="7.57" shape="2301.43,1517.41 2300.65,1515.50 2300.64,1513.78 2301.41,1512.23 2302.94,1510.86"/>
    </edge>
    <edge id=":1154648840_1" function="internal">
        <lane id=":1154648840_1_0" index="0" disallow="tram rail_urban rail rail_electric ship" speed="13.89" length="2.81" shape="2301.43,1517.41 2301.52,1515.92 2302.02,1515.15 2302.42,1515.13"/>
    </edge>
    <edge id=":1154648840_4" function="internal">
        <lane id=":1154648840_4_0" index="0" speed="13.89" length="2.01" shape="2302.42,1515.13 2302.94,1515.09 2304.28,1515.74"/>
    </edge>
    <edge id=":1154648840_2" function="internal">
        <lane id=":1154648840_2_0" index="0" disallow="tram rail_urban rail rail_electric ship" speed="13.89" length="2.47" shape="2304.77,1513.60 2304.27,1514.05 2304.02,1514.56 2304.02,1515.12 2304.28,1515.74"/>
    </edge>
    <edge id=":1154648840_3" function="internal">
        <lane id=":1154648840_3_0" index="0" disallow="tram rail_urban rail rail_electric ship" speed="13.89" length="2.18" shape="2304.77,1513.60 2303.29,1513.60 2302.68,1513.26"/>
    </edge>
    <edge id=":1154648840_5" function="internal">
        <lane id=":1154648840_5_0" index="0" speed="13.89" length="2.64" shape="2302.68,1513.26 2302.48,1513.14 2302.37,1512.23 2302.94,1510.86"/>
    </edge>
    <edge id=":1154648842_0" function="internal">
        <lane id=":1154648842_0_0" index="0" disallow="tram rail_urban rail rail_electric ship" speed="13.89" length="4.82" shape="2326.73,1554.09 2326.64,1555.57 2326.14,1556.34 2325.22,1556.40 2323.88,1555.75"/>
    </edge>
    <edge id=":1405029496_0" function="internal">
        <lane id=":1405029496_0_0" index="0" disallow="tram rail_urban rail rail_electric ship" speed="25.00" length="5.23" shape="1841.40,1176.62 1841.29,1178.11 1841.65,1179.27 1842.47,1180.09 1843.74,1180.58"/>
    </edge>
    <edge id=":1405029496_1" function="internal">
        <lane id=":1405029496_1_0" index="0" disallow="tram rail_urban rail rail_electric ship" speed="27.78" length="6.43" shape="1841.40,1176.62 1839.96,1183.04"/>
        <lane id=":1405029496_1_1" index="1" disallow="tram rail_urban rail rail_electric ship" speed="27.78" length="6.43" shape="1838.16,1175.97 1836.76,1182.24"/>
        <lane id=":1405029496_1_2" index="2" disallow="tram rail_urban rail rail_electric ship" speed="27.78" length="6.43" shape="1834.93,1175.32 1833.55,1181.44"/>
    </edge>
    <edge id=":1405029496_4" function="internal">
        <lane id=":1405029496_4_0" index="0" disallow="tram rail_urban rail rail_electric ship" speed="22.22" length="12.86" shape="1831.22,1177.66 1843.74,1180.58"/>
    </edge>
    <edge id=":1405029496_5" function="internal">
        <lane id=":1405029496_5_0" index="0" disallow="tram rail_urban rail rail_electric ship" speed="25.00" length="7.92" shape="1831.22,1177.66 1833.92,1178.54 1835.75,1179.59 1836.69,1180.83 1836.76,1182.24"/>
    </edge>
    <edge id=":1405029496_6" function="internal">
        <lane id=":1405029496_6_0" index="0" disallow="tram rail_urban rail rail_electric ship" speed="25.00" length="5.06" shape="1831.22,1177.66 1832.52,1178.19 1833.35,1178.99 1833.69,1180.08 1833.55,1181.44"/>
    </edge>
    <edge id=":1405029527_0" function="internal">
        <lane id=":1405029527_0_0" index="0" disallow="tram rail_urban rail rail_electric ship" speed="25.00" length="5.00" shape="1862.40,1087.90 1861.04,1087.83 1859.97,1088.21 1859.21,1089.04 1858.75,1090.33"/>
    </edge>
    <edge id=":1405029527_1" function="internal">
        <lane id=":1405029527_1_0" index="0" disallow="tram rail_urban rail rail_electric ship" speed="25.00" length="10.31" shape="1863.04,1084.66 1860.22,1084.51 1858.03,1085.30 1856.46,1087.02 1855.52,1089.68"/>
    </edge>
    <edge id=":1405029527_2" function="internal">
        <lane id=":1405029527_2_0" index="0" disallow="tram rail_urban rail rail_electric ship" speed="22.22" length="13.31" shape="1863.69,1081.43 1859.57,1081.12 1856.48,1081.62 1853.69,1082.15 1850.48,1081.91"/>
    </edge>
    <edge id=":1405029527_3" function="internal">
        <lane id=":1405029527_3_0" index="0" disallow="tram rail_urban rail rail_electric ship" speed="27.78" length="12.77" shape="1861.23,1077.79 1858.75,1090.33"/>
        <lane id=":1405029527_3_1" index="1" disallow="tram rail_urban rail rail_electric ship" speed="27.78" length="12.77" shape="1857.99,1077.16 1855.52,1089.68"/>
        <lane id=":1405029527_3_2" index="2" disallow="tram rail_urban rail rail_electric ship" speed="27.78" length="12.77" shape="1854.76,1076.53 1852.28,1089.03"/>
    </edge>
    <edge id=":1405029527_6" function="internal">
        <lane id=":1405029527_6_0" index="0" disallow="tram rail_urban rail rail_electric ship" speed="25.00" length="7.66" shape="1854.76,1076.53 1854.04,1079.16 1853.09,1080.93 1851.91,1081.85 1850.48,1081.91"/>
    </edge>
    <edge id=":1405029530_0" function="internal">
        <lane id=":1405029530_0_0" index="0" disallow="tram rail_urban rail rail_electric ship" speed="18.05" length="5.48" shape="1819.10,1280.71 1817.71,1280.63 1816.54,1281.03 1815.57,1281.90 1814.81,1283.25"/>
    </edge>
    <edge id=":1405029530_1" function="internal">
        <lane id=":1405029530_1_0" index="0" disallow="tram rail_urban rail rail_electric ship" speed="22.22" length="6.47" shape="1819.10,1280.71 1812.76,1279.38"/>
    </edge>
    <edge id=":1405029530_2" function="internal">
        <lane id=":1405029530_2_0" index="0" disallow="tram rail_urban rail rail_electric ship" speed="13.89" length="6.57" shape="1816.66,1276.97 1816.31,1278.89 1815.99,1280.19 1815.55,1281.45 1814.81,1283.25"/>
    </edge>
    <edge id=":1405029530_3" function="internal">
        <lane id=":1405029530_3_0" index="0" disallow="tram rail_urban rail rail_electric ship" speed="18.05" length="5.26" shape="1816.66,1276.97 1816.21,1278.29 1815.41,1279.13 1814.27,1279.49 1812.76,1279.38"/>
    </edge>
    <edge id=":1405029535_0" function="internal">
        <lane id=":1405029535_0_0" index="0" disallow="tram rail_urban rail rail_electric ship" speed="20.83" length="5.64" shape="1801.90,1288.74 1800.20,1288.52 1798.80,1288.69 1797.70,1289.27 1796.89,1290.25"/>
    </edge>
    <edge id=":1405029535_1" function="internal">
        <lane id=":1405029535_1_0" index="0" disallow="tram rail_urban rail rail_electric ship" speed="19.44" length="6.60" shape="1800.23,1284.73 1796.89,1290.25"/>
        <lane id=":1405029535_1_1" index="1" disallow="tram rail_urban rail rail_electric ship" speed="19.44" length="6.60" shape="1797.42,1282.99 1794.01,1288.64"/>
        <lane id=":1405029535_1_2" index="2" disallow="tram rail_urban rail rail_electric ship" speed="19.44" length="6.60" shape="1794.62,1281.25 1791.13,1287.03"/>
    </edge>
    <edge id=":1405029560_0" function="internal">
        <lane id=":1405029560_0_0" index="0" disallow="tram rail_urban rail rail_electric ship" speed="22.22" length="6.20" shape="2154.50,1043.61 2148.42,1042.34"/>
    </edge>
    <edge id=":1405029560_1" function="internal">
        <lane id=":1405029560_1_0" index="0" disallow="tram rail_urban rail rail_electric ship" speed="22.22" length="3.05" shape="2154.50,1043.61 2153.26,1042.94 2152.56,1041.57 2152.55,1041.47"/>
    </edge>
    <edge id=":1405029560_2" function="internal">
        <lane id=":1405029560_2_0" index="0" disallow="tram rail_urban rail rail_electric ship" speed="22.22" length="2.41" shape="2154.50,1043.61 2153.45,1042.55 2153.22,1041.66"/>
    </edge>
    <edge id=":1405029560_9" function="internal">
        <lane id=":1405029560_9_0" index="0" speed="22.22" length="4.80" shape="2152.55,1041.47 2152.39,1039.49 2152.77,1036.70"/>
    </edge>
    <edge id=":1405029560_10" function="internal">
        <lane id=":1405029560_10_0" index="0" speed="22.22" length="2.41" shape="2153.22,1041.66 2153.79,1040.94 2155.17,1040.38"/>
    </edge>
    <edge id=":1405029560_3" function="internal">
        <lane id=":1405029560_3_0" index="0" disallow="tram rail_urban rail rail_electric ship" speed="22.22" length="5.00" shape="2149.10,1039.11 2150.47,1039.20 2151.54,1038.83 2152.30,1037.99 2152.77,1036.70"/>
    </edge>
    <edge id=":1405029560_4" function="internal">
        <lane id=":1405029560_4_0" index="0" disallow="tram rail_urban rail rail_electric ship" speed="22.22" length="6.21" shape="2149.10,1039.11 2155.17,1040.38"/>
    </edge>
    <edge id=":1405029560_5" function="internal">
        <lane id=":1405029560_5_0" index="0" disallow="tram rail_urban rail rail_electric ship" speed="22.22" length="2.41" shape="2149.10,1039.11 2150.14,1040.17 2150.38,1041.06"/>
    </edge>
    <edge id=":1405029560_11" function="internal">
        <lane id=":1405029560_11_0" index="0" speed="22.22" length="2.41" shape="2150.38,1041.06 2149.80,1041.78 2148.42,1042.34"/>
    </edge>
    <edge id=":1405029560_6" function="internal">
        <lane id=":1405029560_6_0" index="0" disallow="tram rail_urban rail rail_electric ship" speed="22.22" length="5.01" shape="2150.82,1046.01 2150.91,1044.64 2150.54,1043.58 2149.71,1042.81 2148.42,1042.34"/>
    </edge>
    <edge id=":1405029560_7" function="internal">
        <lane id=":1405029560_7_0" index="0" disallow="tram rail_urban rail rail_electric ship" speed="22.22" length="9.51" shape="2150.82,1046.01 2152.77,1036.70"/>
    </edge>
    <edge id=":1405029560_8" function="internal">
        <lane id=":1405029560_8_0" index="0" disallow="tram rail_urban rail rail_electric ship" speed="22.22" length="7.85" shape="2150.82,1046.01 2151.59,1043.31 2152.58,1041.47 2153.77,1040.50 2155.17,1040.38"/>
    </edge>
    <edge id=":1405029563_0" function="internal">
        <lane id=":1405029563_0_0" index="0" disallow="tram rail_urban rail rail_electric ship" speed="22.22" length="14.74" shape="1758.08,1030.00 1745.68,1022.04"/>
    </edge>
    <edge id=":1405029563_1" function="internal">
        <lane id=":1405029563_1_0" index="0" disallow="tram rail_urban rail rail_electric ship" speed="25.00" length="11.04" shape="1758.08,1030.00 1755.43,1028.03 1753.69,1025.88 1752.85,1023.55 1752.92,1021.05"/>
    </edge>
    <edge id=":1405029563_2" function="internal">
        <lane id=":1405029563_2_0" index="0" disallow="tram rail_urban rail rail_electric ship" speed="25.00" length="9.05" shape="1758.08,1030.00 1756.76,1028.75 1756.00,1026.95 1755.80,1024.60 1756.15,1021.71"/>
    </edge>
    <edge id=":1405029563_3" function="internal">
        <lane id=":1405029563_3_0" index="0" disallow="tram rail_urban rail rail_electric ship" speed="25.00" length="9.07" shape="1747.64,1030.37 1748.00,1027.55 1747.79,1025.22 1747.02,1023.39 1745.68,1022.04"/>
    </edge>
    <edge id=":1405029563_4" function="internal">
        <lane id=":1405029563_4_0" index="0" disallow="tram rail_urban rail rail_electric ship" speed="27.78" length="10.21" shape="1747.64,1030.37 1749.68,1020.40"/>
        <lane id=":1405029563_4_1" index="1" disallow="tram rail_urban rail rail_electric ship" speed="27.78" length="10.21" shape="1750.87,1031.05 1752.92,1021.05"/>
        <lane id=":1405029563_4_2" index="2" disallow="tram rail_urban rail rail_electric ship" speed="27.78" length="10.21" shape="1754.10,1031.73 1756.15,1021.71"/>
    </edge>
    <edge id=":1405029564_0" function="internal">
        <lane id=":1405029564_0_0" index="0" disallow="tram rail_urban rail rail_electric ship" speed="18.05" length="5.02" shape="2236.83,1060.89 2235.46,1060.80 2234.39,1061.18 2233.64,1062.03 2233.19,1063.33"/>
    </edge>
    <edge id=":1405029564_1" function="internal">
        <lane id=":1405029564_1_0" index="0" disallow="tram rail_urban rail rail_electric ship" speed="22.22" length="6.32" shape="2236.83,1060.89 2230.65,1059.60"/>
    </edge>
    <edge id=":1405029564_2" function="internal">
        <lane id=":1405029564_2_0" index="0" disallow="tram rail_urban rail rail_electric ship" speed="22.22" length="2.41" shape="2236.83,1060.89 2235.78,1059.83 2235.55,1058.94"/>
    </edge>
    <edge id=":1405029564_9" function="internal">
        <lane id=":1405029564_9_0" index="0" speed="22.22" length="2.41" shape="2235.55,1058.94 2236.11,1058.21 2237.49,1057.65"/>
    </edge>
    <edge id=":1405029564_3" function="internal">
        <lane id=":1405029564_3_0" index="0" disallow="tram rail_urban rail rail_electric ship" speed="18.05" length="5.10" shape="2234.98,1053.95 2234.91,1055.33 2235.31,1056.41 2236.17,1057.18 2237.49,1057.65"/>
    </edge>
    <edge id=":1405029564_4" function="internal">
        <lane id=":1405029564_4_0" index="0" disallow="tram rail_urban rail rail_electric ship" speed="13.89" length="9.55" shape="2234.98,1053.95 2233.19,1063.33"/>
    </edge>
    <edge id=":1405029564_5" function="internal">
        <lane id=":1405029564_5_0" index="0" disallow="tram rail_urban rail rail_electric ship" speed="18.05" length="7.89" shape="2234.98,1053.95 2234.25,1056.67 2233.28,1058.52 2232.08,1059.50 2230.65,1059.60"/>
    </edge>
    <edge id=":1405029564_6" function="internal">
        <lane id=":1405029564_6_0" index="0" disallow="tram rail_urban rail rail_electric ship" speed="22.22" length="6.30" shape="2231.32,1056.37 2237.49,1057.65"/>
    </edge>
    <edge id=":1405029564_7" function="internal">
        <lane id=":1405029564_7_0" index="0" disallow="tram rail_urban rail rail_electric ship" speed="18.05" length="3.00" shape="2231.32,1056.37 2232.58,1057.05 2233.32,1058.43"/>
    </edge>
    <edge id=":1405029564_8" function="internal">
        <lane id=":1405029564_8_0" index="0" disallow="tram rail_urban rail rail_electric ship" speed="22.22" length="2.41" shape="2231.32,1056.37 2232.36,1057.44 2232.60,1058.33"/>
    </edge>
    <edge id=":1405029564_10" function="internal">
        <lane id=":1405029564_10_0" index="0" speed="18.05" length="4.93" shape="2233.32,1058.43 2233.52,1060.53 2233.19,1063.33"/>
    </edge>
    <edge id=":1405029564_11" function="internal">
        <lane id=":1405029564_11_0" index="0" speed="22.22" length="2.41" shape="2232.60,1058.33 2232.03,1059.05 2230.65,1059.60"/>
    </edge>
    <edge id=":1405029566_0" function="internal">
        <lane id=":1405029566_0_0" index="0" disallow="tram rail_urban rail rail_electric ship" speed="22.22" length="10.15" shape="2153.55,1168.53 2151.97,1166.08 2150.74,1164.51 2149.36,1163.04 2147.38,1160.90"/>
        <lane id=":1405029566_0_1" index="1" disallow="tram rail_urban rail rail_electric ship" speed="22.22" length="10.15" shape="2156.37,1166.82 2154.70,1164.22 2153.40,1162.54 2151.95,1160.98 2149.84,1158.70"/>
    </edge>
    <edge id=":1405029566_2" function="internal">
        <lane id=":1405029566_2_0" index="0" disallow="tram rail_urban rail rail_electric ship" speed="22.22" length="9.95" shape="2158.98,1163.84 2156.01,1162.71 2153.92,1161.95 2152.06,1160.86 2149.84,1158.70"/>
        <lane id=":1405029566_2_1" index="1" disallow="tram rail_urban rail rail_electric ship" speed="22.22" length="9.95" shape="2160.29,1160.82 2157.71,1159.85 2155.87,1159.25 2154.24,1158.35 2152.30,1156.50"/>
    </edge>
    <edge id=":1405029569_0" function="internal">
        <lane id=":1405029569_0_0" index="0" disallow="tram rail_urban rail rail_electric ship" speed="25.00" length="5.79" shape="2182.95,1173.70 2181.74,1174.27 2180.96,1174.80 2180.39,1175.53 2179.83,1176.72"/>
        <lane id=":1405029569_0_1" index="1" disallow="tram rail_urban rail rail_electric ship" speed="25.00" length="5.79" shape="2181.59,1170.70 2179.71,1171.59 2178.51,1172.43 2177.64,1173.60 2176.78,1175.47"/>
    </edge>
    <edge id=":1405029569_2" function="internal">
        <lane id=":1405029569_2_0" index="0" disallow="tram rail_urban rail rail_electric ship" speed="25.00" length="6.91" shape="2181.59,1170.70 2179.91,1171.27 2178.24,1171.46 2176.56,1171.29 2174.88,1170.75"/>
    </edge>
    <edge id=":1405029569_3" function="internal">
        <lane id=":1405029569_3_0" index="0" disallow="tram rail_urban rail rail_electric ship" speed="25.00" length="4.16" shape="2180.23,1167.69 2179.22,1168.03 2178.21,1168.15 2177.20,1168.05 2176.19,1167.72"/>
    </edge>
    <edge id=":1405058301_0" function="internal">
        <lane id=":1405058301_0_0" index="0" disallow="tram rail_urban rail rail_electric ship" speed="16.67" length="6.32" shape="2178.38,927.52 2172.27,926.20"/>
        <lane id=":1405058301_0_1" index="1" disallow="tram rail_urban rail rail_electric ship" speed="16.67" length="6.32" shape="2179.10,924.30 2172.94,922.97"/>
        <lane id=":1405058301_0_2" index="2" disallow="tram rail_urban rail rail_electric ship" speed="16.67" length="6.32" shape="2179.81,921.08 2173.62,919.74"/>
        <lane id=":1405058301_0_3" index="3" disallow="tram rail_urban rail rail_electric ship" speed="16.67" length="6.32" shape="2180.53,917.86 2174.29,916.51"/>
    </edge>
    <edge id=":1405058301_4" function="internal">
        <lane id=":1405058301_4_0" index="0" disallow="tram rail_urban rail rail_electric ship" speed="19.44" length="5.05" shape="2174.70,929.90 2174.79,928.52 2174.41,927.45 2173.57,926.67 2172.27,926.20"/>
    </edge>
    <edge id=":1405058301_5" function="internal">
        <lane id=":1405058301_5_0" index="0" disallow="tram rail_urban rail rail_electric ship" speed="19.44" length="7.89" shape="2174.70,929.90 2175.08,927.11 2174.91,925.02 2174.20,923.64 2172.94,922.97"/>
    </edge>
    <edge id=":1405058301_6" function="internal">
        <lane id=":1405058301_6_0" index="0" disallow="tram rail_urban rail rail_electric ship" speed="22.22" length="16.13" shape="2174.70,929.90 2177.96,914.11"/>
    </edge>
    <edge id=":1405058303_0" function="internal">
        <lane id=":1405058303_0_0" index="0" disallow="tram rail_urban rail rail_electric ship" speed="13.89" length="4.82" shape="1725.60,1753.96 1724.82,1755.23 1724.02,1755.68 1723.17,1755.30 1722.30,1754.10"/>
    </edge>
    <edge id=":1405058305_0" function="internal">
        <lane id=":1405058305_0_0" index="0" disallow="tram rail_urban rail rail_electric ship" speed="16.67" length="0.29" shape="1525.32,729.45 1525.02,729.24"/>
        <lane id=":1405058305_0_1" index="1" disallow="tram rail_urban rail rail_electric ship" speed="16.67" length="0.29" shape="1527.19,726.73 1526.93,726.55"/>
        <lane id=":1405058305_0_2" index="2" disallow="tram rail_urban rail rail_electric ship" speed="16.67" length="0.29" shape="1529.06,724.02 1528.85,723.86"/>
        <lane id=":1405058305_0_3" index="3" disallow="tram rail_urban rail rail_electric ship" speed="16.67" length="0.29" shape="1530.93,721.30 1530.76,721.17"/>
    </edge>
    <edge id=":1405058306_0" function="internal">
        <lane id=":1405058306_0_0" index="0" disallow="tram rail_urban rail rail_electric ship" speed="13.89" length="6.32" shape="1773.24,1490.36 1767.07,1489.01"/>
    </edge>
    <edge id=":1405058306_1" function="internal">
        <lane id=":1405058306_1_0" index="0" disallow="tram rail_urban rail rail_electric ship" speed="13.89" length="2.41" shape="1773.24,1490.36 1772.20,1489.30 1771.96,1488.41"/>
    </edge>
    <edge id=":1405058306_6" function="internal">
        <lane id=":1405058306_6_0" index="0" speed="13.89" length="2.41" shape="1771.96,1488.41 1772.53,1487.68 1773.91,1487.12"/>
    </edge>
    <edge id=":1405058306_2" function="internal">
        <lane id=":1405058306_2_0" index="0" disallow="tram rail_urban rail rail_electric ship" speed="13.89" length="5.02" shape="1771.53,1483.44 1771.42,1484.81 1771.78,1485.89 1772.61,1486.66 1773.91,1487.12"/>
    </edge>
    <edge id=":1405058306_3" function="internal">
        <lane id=":1405058306_3_0" index="0" disallow="tram rail_urban rail rail_electric ship" speed="13.89" length="7.88" shape="1771.53,1483.44 1770.72,1486.14 1769.70,1487.97 1768.48,1488.92 1767.07,1489.01"/>
    </edge>
    <edge id=":1405058306_4" function="internal">
        <lane id=":1405058306_4_0" index="0" disallow="tram rail_urban rail rail_electric ship" speed="13.89" length="6.24" shape="1767.81,1485.79 1773.91,1487.12"/>
    </edge>
    <edge id=":1405058306_5" function="internal">
        <lane id=":1405058306_5_0" index="0" disallow="tram rail_urban rail rail_electric ship" speed="13.89" length="2.41" shape="1767.81,1485.79 1768.83,1486.87 1769.05,1487.77"/>
    </edge>
    <edge id=":1405058306_7" function="internal">
        <lane id=":1405058306_7_0" index="0" speed="13.89" length="2.41" shape="1769.05,1487.77 1768.46,1488.48 1767.07,1489.01"/>
    </edge>
    <edge id=":1405058308_0" function="internal">
        <lane id=":1405058308_0_0" index="0" disallow="tram rail_urban rail rail_electric ship" speed="16.67" length="11.35" shape="1904.24,761.50 1907.22,762.18 1909.29,762.62 1911.37,762.80 1914.40,762.64"/>
        <lane id=":1405058308_0_1" index="1" disallow="tram rail_urban rail rail_electric ship" speed="16.67" length="11.35" shape="1903.58,764.73 1906.84,765.46 1909.10,765.94 1911.37,766.11 1914.69,765.93"/>
        <lane id=":1405058308_0_2" index="2" disallow="tram rail_urban rail rail_electric ship" speed="16.67" length="11.35" shape="1903.58,764.73 1907.03,766.03 1909.24,767.64 1911.46,768.92 1914.98,769.22"/>
    </edge>
    <edge id=":1405058308_3" function="internal">
        <lane id=":1405058308_3_0" index="0" disallow="tram rail_urban rail rail_electric ship" speed="22.22" length="11.61" shape="1902.91,767.97 1906.54,768.90 1909.44,770.06 1911.61,771.45 1913.06,773.06"/>
    </edge>
    <edge id=":1405058308_4" function="internal">
        <lane id=":1405058308_4_0" index="0" disallow="tram rail_urban rail rail_electric ship" speed="22.22" length="8.95" shape="1902.25,771.20 1905.23,771.93 1907.55,772.78 1909.23,773.74 1910.26,774.81"/>
    </edge>
    <edge id=":1405058308_5" function="internal">
        <lane id=":1405058308_5_0" index="0" disallow="tram rail_urban rail rail_electric ship" speed="22.22" length="7.61" shape="1902.25,771.20 1903.38,771.70 1904.62,772.76 1905.98,774.38 1907.45,776.55"/>
    </edge>
    <edge id=":1405058311_0" function="internal">
        <lane id=":1405058311_0_0" index="0" disallow="tram rail_urban rail rail_electric ship" speed="13.89" length="5.04" shape="1786.29,1585.74 1786.03,1584.41 1785.40,1583.46 1784.40,1582.91 1783.01,1582.75"/>
    </edge>
    <edge id=":1405058311_1" function="internal">
        <lane id=":1405058311_1_0" index="0" disallow="tram rail_urban rail rail_electric ship" speed="13.89" length="9.47" shape="1786.29,1585.74 1785.97,1576.28"/>
    </edge>
    <edge id=":1405058311_2" function="internal">
        <lane id=":1405058311_2_0" index="0" disallow="tram rail_urban rail rail_electric ship" speed="13.89" length="2.41" shape="1786.29,1585.74 1787.06,1584.47 1787.87,1584.02"/>
    </edge>
    <edge id=":1405058311_9" function="internal">
        <lane id=":1405058311_9_0" index="0" speed="13.89" length="2.41" shape="1787.87,1584.02 1788.71,1584.40 1789.59,1585.60"/>
    </edge>
    <edge id=":1405058311_3" function="internal">
        <lane id=":1405058311_3_0" index="0" disallow="tram rail_urban rail rail_electric ship" speed="13.89" length="9.41" shape="1789.27,1576.19 1789.59,1585.60"/>
    </edge>
    <edge id=":1405058311_4" function="internal">
        <lane id=":1405058311_4_0" index="0" disallow="tram rail_urban rail rail_electric ship" speed="13.89" length="5.17" shape="1789.27,1576.19 1788.94,1579.01 1787.79,1581.04"/>
    </edge>
    <edge id=":1405058311_5" function="internal">
        <lane id=":1405058311_5_0" index="0" disallow="tram rail_urban rail rail_electric ship" speed="13.89" length="2.41" shape="1789.27,1576.19 1788.48,1577.45 1787.66,1577.88"/>
    </edge>
    <edge id=":1405058311_10" function="internal">
        <lane id=":1405058311_10_0" index="0" speed="13.89" length="5.17" shape="1787.79,1581.04 1785.81,1582.28 1783.01,1582.75"/>
    </edge>
    <edge id=":1405058311_11" function="internal">
        <lane id=":1405058311_11_0" index="0" speed="13.89" length="2.41" shape="1787.66,1577.88 1786.83,1577.49 1785.97,1576.28"/>
    </edge>
    <edge id=":1405058311_6" function="internal">
        <lane id=":1405058311_6_0" index="0" disallow="tram rail_urban rail rail_electric ship" speed="13.89" length="5.00" shape="1782.94,1579.45 1784.30,1579.22 1785.25,1578.62 1785.81,1577.64 1785.97,1576.28"/>
    </edge>
    <edge id=":1405058311_7" function="internal">